include omnetpp.ini

[Config config1]
fingerprint = "9c43-37f3"
sim-time-limit = 10000s

[Config config4]
fingerprint = "1c79-4e42"
sim-time-limit = 10000s
