[Config PureAloha1]
fingerprint = "374a-83b0"
sim-time-limit = 10000s

[Config PureAloha2]
fingerprint = "bfb8-1b5a"
sim-time-limit = 10000s

[Config SlottedAloha1]
fingerprint = "343c-abf7"
sim-time-limit = 10000s

[Config SlottedAloha2]
fingerprint = "58cd-2955"
sim-time-limit = 10000s

include omnetpp.ini

