include omnetpp.ini

[Config PureAloha1]
fingerprint = "f92a-6047"
sim-time-limit = 10000s

[Config PureAloha2]
fingerprint = "28ef-c114"
sim-time-limit = 10000s

[Config SlottedAloha1]
fingerprint = "06bc-b456"
sim-time-limit = 10000s

[Config SlottedAloha2]
fingerprint = "1eba-4277"
sim-time-limit = 10000s
