include omnetpp.ini

[Config PureAloha2]
fingerprint = "28ef-c114"
sim-time-limit = 10000s

[Config SlottedAloha2]
fingerprint = "1eba-4277"
sim-time-limit = 10000s
