%description:
Tests if [General]/sim-time-limit= ini file setting works in Cmdenv.

%module: {Module}

#include <omnetpp.h>

class {Module} : public cSimpleModule
{
    Module_Class_Members({Module},cSimpleModule,32768)
    virtual void activity();
    virtual void finish();
};

Define_Module({Module});

void {Module}::activity()
{
   for(int i=1; i<100; i++)
   {
      wait(1); // don't test with 0.1 which suffers from rounding errors
      ev << "time: " << simTime() << "s\n";
   }
}

void {Module}::finish()
{
   ev << "finish() at " << simTime() << "s\n";
}

%inifile: {}.ini
[General]
network={}_network
sim-time-limit=5s

%not-contains: stdout
time: 5.

%contains: stdout
time: 5s

%contains: stdout
finish() at 5s


