%description:
Tests if [General]/sim-time-limit= ini file setting works in Cmdenv.

%module: Module

class Module : public cSimpleModule
{
  public:
    Module() : cSimpleModule(32768) { }
    virtual void activity() override;
    virtual void finish() override;
};

Define_Module(Module);

void Module::activity()
{
   for(int i=1; i<100; i++)
   {
      wait(1); // don't test with 0.1 which suffers from rounding errors
      EV << "time: " << simTime() << "s\n";
   }
}

void Module::finish()
{
   EV << "finish() at " << simTime() << "s\n";
}

%inifile: test.ini
[General]
network = Module
cmdenv-express-mode = false
sim-time-limit = 5s

%not-contains: stdout
time: 5.

%contains: stdout
time: 5s

%contains: stdout
finish() at 5s


