include omnetpp.ini

[Config OneFifo]
fingerprint = "fbe3-6109"

[Config TandemFifos]
fingerprint = "897d-78ca"
sim-time-limit = 10000s

[Config Ring]
fingerprint = "8cb7-1b44"
sim-time-limit = 10000s

[Config Terminal]
fingerprint = "45fb-7498"
sim-time-limit = 10000s

[Config CallCenter]
fingerprint = "b5a7-7d5f"
sim-time-limit = 10000s

[Config SplitJoin]
fingerprint = "095c-0d27"
sim-time-limit = 10000s
