[Config OneFifo]
fingerprint = "82f7-a817"
sim-time-limit = 10000s

[Config TandemFifos]
fingerprint = "f527-55ff"
sim-time-limit = 10000s

[Config Ring]
fingerprint = "2f01-d662"
sim-time-limit = 10000s

[Config Terminal]
fingerprint = "cc24-6a55"
sim-time-limit = 10000s

[Config CallCenter]
fingerprint = "75d0-e880"
sim-time-limit = 10000s

[Config ForkJoin]
fingerprint = "3de5-87c9"
sim-time-limit = 10000s

include omnetpp.ini

