[General]
network = Histograms
sim-time-limit = 1000s  # *1000 observations

[Config Bimodal]
*.variable = intuniform(0,1) == 0 ? exponential(30) : normal(80, 10)

[Config DriftingNormal]
*.variable = dropUnit(simTime()) + normal(0,5)

[Config RareExtremeValues]
*.variable = intuniform(0,5000) == 0 ? uniform(0,1000*dropUnit(simTime())) : exponential(1)

[Config UnexpectedExtremeValue1]
*.variable = simTime() < 1s ? normal(0,1e-3) : exponential(1e100)   # force a histogram to set up bins over a small range, then throw a huge value at it!

[Config UnexpectedExtremeValue2]
*.variable = simTime() < 1s ? normal(0,1e-3) : -exponential(1e100)

[Config HugeValuesTinyRange]
*.variable = 1000000000 + ((intuniform(0,10) > 0) ? 0.0 : 0.000001)

[Config Empty]
*.variable = 7.3
*.count = 0

[Config OneObservation]
*.variable = 7.3
*.count = 1

[Config Infinity]
*.variable = inf
*.count = 1

[Config TwoObservations]
*.variable = uniform(0,10)
*.count = 2

[Config Constant]
*.variable = 7.3

[Config Linear]
*.variable = dropUnit(simTime())

[Config UnitNormal]
*.variable = normal(0,1)

[Config Exponential10]
*.variable = exponential(10)

[Config UnitUniform]
*.variable = uniform(0,1)

[Config Uniform200]
*.variable = uniform(-50,150)

[Config IntUniformWithGaps]
*.variable = 10*intuniform(0,5)

[Config BinomialWithGaps]
*.variable = 10*binomial(40,0.5)

[Config GeometricWithGaps]
*.variable = 10*geometric(0.1)

[Config ConstantWeightedUniform]
*.weighted = true
*.variable = uniform(0,1)
*.weight = 0.1

[Config SineWeightedUniform]
*.weighted = true
*.variable = fmod(simTime()/1s, 10)
*.weight = 1+sin(fmod(simTime()/1s, 10) * 0.31415926)

[Config SineWeightedLinear]
*.weighted = true
*.variable = dropUnit(simTime())
*.weight = 1+sin(simTime()/100s)

