[General]
parallel-simulation = true
parsim-communications-class = "cNamedPipeCommunications"
parsim-synchronization-class = "cNullMessageProtocol"

[Config Tictoc1]
network = Tictoc1

sim-time-limit = 10000s


*.tic.partition-id = 0
*.toc.partition-id = 1
