[General]
network = Histograms
sim-time-limit = 1000s  # *1000 observations

[Config UnitUniform]
*.variable = uniform(0,1)

[Config Uniform200]
*.variable = uniform(-50,150)

[Config UnitNormal]
*.variable = normal(0,1)

[Config Exponential10]
*.variable = exponential(10)

[Config Bimodal]
*.variable = intuniform(0,1) == 0 ? exponential(30) : normal(80, 10)

[Config ConstantWeightedUniform]
*.weighted = true
*.variable = uniform(0,1)
*.weight = 0.1

[Config SineWeightedUniform]
*.weighted = true
*.variable = fmod(simTime()/1s, 10)
*.weight = 1+sin(fmod(simTime()/1s, 10) * 0.31415926)
