[General]
network = Histograms
sim-time-limit = 1000s  # *1000 observations

[Uniform]
*.variable = uniform(0,10)

[IntUniform]
*.variable = intuniform(0,10)

[Normal]
*.variable = normal(10,10)

[Exponential]
*.variable = exponential(10)

[Bimodal]
*.variable = intuniform(0,1) == 0 ? exponential(10) : normal(30, 5)

[ConstantWeightedUniform]
*.weighted = true
*.variable = uniform(0,10)
*.weight = 0.1

[SineWeightedUniform]
*.weighted = true
*.variable = fmod(simTime()/1s, 10)
*.weight = 1+sin(fmod(simTime()/1s, 10) * 0.31415926)
