include omnetpp.ini

[Config config1]
sim-time-limit = 1000000s
fingerprint = "60c2-c617"

[Config config2]
sim-time-limit = 1000000s
fingerprint = "2ad1-b7c9"
