include omnetpp.ini

[Config CQN-B]
sim-time-limit = 1000000s
fingerprint = "cb2d-bf17"

[Config CQN-A]
sim-time-limit = 1000000s
fingerprint = "691c-684b"
