include omnetpp.ini

[Config CQN-B]
sim-time-limit = 1000000s
fingerprint = "cb2d-bf17 a816-bf0f" # first: Windows MSVC; second: Linux gcc

[Config CQN-A]
sim-time-limit = 1000000s
fingerprint = "691c-684b edb7-9142" # first: Windows MSVC; second: Linux gcc
