[Config CQN-B]
sim-time-limit = 1000000s
fingerprint = "cb2d-bf17 49ac-e483" # first: Windows MSVC; second: Linux gcc

[Config CQN-A]
sim-time-limit = 1000000s
fingerprint = "691c-684b e144-4e02" # first: Windows MSVC; second: Linux gcc

include omnetpp.ini
