include omnetpp.ini

[Run 1]
sim-time-limit=1000000s
fingerprint="60c2-c617"

[Run 2]
sim-time-limit=1000000s
fingerprint="2ad1-b7c9"
