include omnetpp.ini

[Config CQN-B]
sim-time-limit = 1000000s
fingerprint = "a816-bf0f"

[Config CQN-A]
sim-time-limit = 1000000s
fingerprint = "edb7-9142"
