[Config CQN-B]
sim-time-limit = 10000s
fingerprint = "137a-03a4"

[Config CQN-A]
sim-time-limit = 10000s
fingerprint = "8865-e8f5"

include omnetpp.ini
