[Config Medium]
ClientServer.numClients = 4
sim-time-limit = 1000s
fingerprint = "f273-f31d"

include omnetpp.ini

