include omnetpp.ini

[Config Medium]
ClientServer.numClients = 4
sim-time-limit = 1000s
fingerprint = "c896-6796"
