include omnetpp.ini

[Run 1]
ClientServer.numClients = 4
sim-time-limit = 1000
fingerprint = "68f6-d9df"