include omnetpp.ini

[Config config1]
ClientServer.numClients = 4
sim-time-limit = 1000s
fingerprint = "68f6-d9df"
