[General]
network = ClientServer
snapshot-file = ClientServer.sna
output-vector-file = ClientServer.vec
sim-time-limit = 50000s
cpu-time-limit = 600s
total-stack = 7MiB  # increase if necessary

ClientServer.client[*].connIaTime = exponential(10s)
ClientServer.client[*].queryIaTime = exponential(2s)
ClientServer.client[*].numQuery = int(truncnormal(3, 1))
ClientServer.server.processingTime = 0.2s

**.server.*.display-string = "i=block/cogwheel;g=grp;p=50,50,ring"

[User]
description = "ask number of client computers"
ClientServer.numClients = ask

[Small]
description = "8 client computers"
ClientServer.numClients = 8

[Medium]
description = "20 client computers"
ClientServer.numClients = 20
