[General]
sim-time-limit = 100h
cpu-time-limit = 300s
debug-on-errors = true
#record-eventlog = true
network = TestNetwork
