[Config Net60]
sim-time-limit = 1000s
fingerprint = "8b0d-bd55"

include omnetpp.ini

