include omnetpp.ini

[Config Net60]
sim-time-limit = 1000s
fingerprint = "8a64-92fc"
