include omnetpp.ini

[General]
network = networks.Net60
sim-time-limit = 1000s
fingerprint = "4c4b-9589"
