[Config Net60]
sim-time-limit = 1000s
fingerprint = "79fe-7e4a"

include omnetpp.ini

