include omnetpp.ini

[General]
sim-time-limit = 1000
fingerprint = "4c4b-9589"
