include omnetpp.ini

[General]
sim-time-limit = 1000
fingerprint = "fcd6-0f57"