include omnetpp.ini

[Config TokenRing1]
fingerprint = "a0bc-439c"
TokenRing.numStations = 5
sim-time-limit = 2s

[Config TokenRing2]
fingerprint = "afbb-da55"
sim-time-limit = 2s


