[General]
sim-time-limit = 100h
cpu-time-limit = 300s

[Fifo1]
description = "low job arrival rate"
network = SingleQueue
**.source.interarrivalTime = exponential(0.2s)
**.fifo.serviceTime = 0.1s

[Fifo2]
description = "high job arrival rate"
network = SingleQueue
**.source.interarrivalTime = exponential(0.1s)
**.fifo.serviceTime = 0.1s

[TandemQueues]
network = TandemQueues
**.interarrivalTime = exponential(2s)
**.serviceTime = exponential(2s)

[TandemQueueExperiment] # this config is used by test/scave/, do not modify!
network = TandemQueues
**.interarrivalTime = exponential(2s)
**.serviceTime = truncnormal(${serviceTimeMean=1.5s, 2.5s},1s)
repeat = 2
sim-time-limit = 200s
